13	
ANI-1E 21769 5.03605 1.44783 1.15183 2.4464 52.87         -0.3487          0.0454          0.3941 949.0326 0.09677     -435.578195 -435.571151 -435.570207 -435.610049 24.671	
H  -2.4375770000  1.2773980000  -0.0119810000
C  -2.0550490000  0.2444720000  0.0395110000
O  -2.7409380000  -0.7548720000  0.0334730000
N  -0.6964450000  0.2027150000  0.1731300000
O  -0.0081430000  1.3603820000  -0.2668720000
C  1.3302440000  1.1343100000  0.1421790000
H  1.4949690000  1.4352270000  1.1868180000
H  1.9897200000  1.6961880000  -0.5212300000
C  1.5193000000  -0.3761050000  0.0079170000
O  2.5590410000  -0.9769850000  0.0062330000
C  0.1153440000  -0.9602310000  -0.1135700000
H  -0.0567700000  -1.7511110000  0.6186700000
H  -0.0539490000  -1.3595870000  -1.1230760000
