19	
ANI-1E 11684 3.63685 1.27881 1.00833 1.9508 71.47         -0.3115          0.0902          0.4017 1202.7454 0.168104     -364.904447 -364.895308 -364.894364 -364.938363 33.275	
H  2.5941270000  1.4148890000  0.5713390000
C  1.5124490000  1.4359780000  0.5075450000
H  1.0114280000  2.3409640000  0.8285150000
C  0.7803510000  0.4061500000  0.0669470000
O  1.2777110000  -0.8076830000  -0.3045400000
C  2.6708260000  -0.9903930000  -0.1849100000
H  3.2186810000  -0.3008720000  -0.8399480000
H  3.0003570000  -0.8363130000  0.8508500000
H  2.8731990000  -2.0192650000  -0.4871280000
C  -0.7032150000  0.4407690000  -0.0492650000
C  -1.3341370000  1.5290670000  -0.4883290000
H  -2.4189010000  1.5633020000  -0.5130890000
H  -0.7838720000  2.4047890000  -0.8204040000
C  -1.4363760000  -0.8176420000  0.3651110000
H  -0.9362960000  -1.6747240000  -0.1108370000
H  -1.3044490000  -0.9525780000  1.4472140000
N  -2.8664300000  -0.7384620000  0.0901130000
H  -3.0183840000  -0.7862800000  -0.9140460000
H  -3.3319560000  -1.5467800000  0.4904690000
