18	
ANI-1E 31187 5.52475 1.08937 1.00674 4.2589 65.47         -0.3390          0.0902          0.4292 1197.3999 0.157849     -380.945094 -380.937028 -380.936083 -380.978395 28.605	
H  -1.4085740000  2.1985130000  0.4307020000
C  -1.4131280000  1.1295830000  0.2449920000
N  -2.3800800000  0.6133100000  -0.4029440000
O  -2.1855940000  -0.7399680000  -0.5384200000
C  -1.0415380000  -1.1371410000  0.2433470000
H  -1.4063110000  -1.6790280000  1.1232080000
H  -0.4237610000  -1.7927930000  -0.3749960000
C  -0.3219030000  0.1606190000  0.6222430000
H  -0.1126160000  0.1937770000  1.7062780000
N  0.8788850000  0.3956890000  -0.1704250000
H  1.0657310000  1.3946020000  -0.2128450000
C  2.0549130000  -0.2853130000  0.3559520000
H  2.2355110000  -0.0446740000  1.4211480000
H  1.8689070000  -1.3665830000  0.3115300000
C  3.2850690000  0.0530080000  -0.4723060000
H  3.1225840000  -0.2124640000  -1.5210480000
H  3.5069990000  1.1260360000  -0.4238940000
H  4.1641680000  -0.4851720000  -0.1045080000
