17	
ANI-1E 35842 3.95996 1.13455 0.93305 1.7864 66.12         -0.3256          0.0953          0.4210 1249.7468 0.142395     -400.801068 -400.792064 -400.79112 -400.83587 30.913	
H  -2.2459180000  -0.9051030000  -1.2076140000
C  -2.1305930000  -0.2319420000  -0.3548990000
N  -1.0463430000  -0.2247310000  0.3086970000
O  -0.1450000000  -1.1507670000  -0.2064880000
C  1.0776710000  -1.1268790000  0.4871340000
H  0.9463290000  -0.6021030000  1.4399130000
H  1.3678200000  -2.1683610000  0.6374980000
O  2.1207400000  -0.5710450000  -0.2633000000
C  2.2639560000  0.7847100000  -0.3015310000
H  3.1867020000  1.0275810000  -0.8217760000
C  1.4672590000  1.7236460000  0.1995920000
H  0.5227040000  1.5119390000  0.6879340000
H  1.7646840000  2.7608190000  0.0899920000
C  -3.2471100000  0.6809310000  0.0339030000
H  -3.4960170000  1.3579920000  -0.7908220000
H  -4.1506170000  0.1078490000  0.2702520000
H  -2.9643050000  1.2741980000  0.9068650000
