16	
ANI-1E 39179 4.34892 1.52578 1.25511 3.8220 63.68         -0.3249          0.0451          0.3701 975.4170 0.134597     -379.739572 -379.732014 -379.73107 -379.771723 27.465	
H  -0.4689060000  1.8719680000  -0.9656900000
C  0.1312000000  1.1049950000  -0.4817850000
C  1.3949280000  1.2996290000  -0.1085060000
H  1.9195630000  2.2408190000  -0.2493100000
C  2.0696210000  0.1263270000  0.5400660000
H  1.8439530000  0.0881820000  1.6192840000
H  3.1541700000  0.1392850000  0.4108750000
O  1.6473570000  -1.0844310000  -0.0772160000
N  0.2730540000  -1.2806260000  -0.1076750000
C  -0.4456740000  -0.2284020000  -0.2757870000
C  -1.9356510000  -0.4323610000  -0.3452060000
H  -2.2727170000  -0.1842880000  -1.3681530000
H  -2.1297980000  -1.4957740000  -0.1835830000
N  -2.6085380000  0.3348410000  0.7028370000
H  -2.5704740000  1.3281210000  0.4909140000
H  -3.5928000000  0.0864970000  0.7245630000
