16	
ANI-1E 39629 3.33490 1.46757 1.12531 1.9584 58.81         -0.3425          0.0855          0.4280 1050.3082 0.133019     -416.833611 -416.825124 -416.82418 -416.867696 29.619	
H  1.7604230000  2.5190730000  0.0589240000
O  1.6911360000  1.5698090000  0.2206740000
N  0.3870490000  1.2871610000  -0.1801120000
C  0.1047920000  0.0550640000  -0.0088910000
C  1.0657080000  -0.9717600000  0.5365560000
H  1.5364690000  -0.5611490000  1.4421860000
H  0.4953100000  -1.8594920000  0.8287560000
N  2.0073820000  -1.3442840000  -0.5206200000
H  2.5948960000  -0.5383630000  -0.7180990000
H  2.6232750000  -2.0774950000  -0.1812080000
C  -1.2493830000  -0.3942470000  -0.4417250000
H  -1.2421750000  -1.1648000000  -1.2154730000
O  -2.1803840000  -0.6343220000  0.6102050000
C  -2.4267360000  0.4501500000  -0.2790450000
H  -2.3046870000  1.4431180000  0.1491710000
H  -3.2768360000  0.3198290000  -0.9475380000
