16	
ANI-1E 12582 3.29162 1.29571 1.05074 3.6686 64.65         -0.3660          0.0809          0.4469 1137.7931 0.131475     -379.757479 -379.748736 -379.747792 -379.79152 30.016	
H  -3.6396950000  0.1781090000  -1.2700290000
C  -2.9744430000  0.3393740000  -0.4282480000
H  -3.2094110000  1.0852980000  0.3308170000
N  -1.9284240000  -0.3778860000  -0.3791700000
O  -1.1786630000  -0.0841510000  0.7484290000
C  0.0151880000  -0.8418100000  0.7243680000
H  0.4395820000  -0.7384120000  1.7273480000
H  -0.2117310000  -1.8974160000  0.5330200000
C  1.0043220000  -0.3429980000  -0.3348140000
H  0.4996980000  -0.4011300000  -1.3067430000
C  1.3361070000  1.0705230000  -0.0968310000
N  1.6218530000  2.1742870000  0.0981030000
C  2.2732830000  -1.2025180000  -0.3561300000
H  2.7836520000  -1.1677230000  0.6118660000
H  2.0154400000  -2.2435490000  -0.5753850000
H  2.9710280000  -0.8522030000  -1.1209330000
