13	
ANI-1E 42426 5.95636 0.79922 0.71444 5.7532 63.16         -0.3792          0.0245          0.4037 1477.6707 0.095359     -361.333296 -361.324607 -361.323663 -361.368165 28.397	
H  -2.0963530000  -1.7406420000  0.6271130000
C  -1.9228650000  -0.9805600000  -0.1434410000
H  -2.1164260000  -1.4594740000  -1.1104890000
C  -2.8975530000  0.1053550000  0.0430280000
N  -3.6795990000  0.9428330000  0.1900270000
C  -0.5325290000  -0.5183890000  -0.0918020000
C  0.6131330000  -0.1461860000  -0.0567630000
C  2.0090840000  0.3059590000  -0.0144690000
O  2.2839490000  1.4788820000  -0.1299710000
C  3.0384290000  -0.7787640000  0.1805320000
H  2.8594240000  -1.2967670000  1.1291850000
H  2.9572290000  -1.5234140000  -0.6188080000
H  4.0355330000  -0.3350860000  0.1800770000
