12	
ANI-1E 43667 3.89834 1.96629 1.35604 2.1234 51.75         -0.3867         -0.0533          0.3335 832.0510 0.086407     -414.534059 -414.527283 -414.526339 -414.565423 23.852	
H  2.1532960000  0.9647400000  -0.1366510000
O  2.3799620000  0.0735850000  -0.4418240000
C  1.5987730000  -0.8409270000  0.2868920000
H  1.8403740000  -1.8463690000  -0.0660440000
H  1.8146660000  -0.8072710000  1.3679540000
C  0.1358340000  -0.5863820000  0.0992840000
N  -0.8051110000  -1.4403300000  -0.0021880000
C  -1.9930900000  -0.6135590000  -0.1248900000
H  -2.9495690000  -1.1151710000  -0.2398610000
N  -1.8670340000  0.6582720000  -0.0975640000
C  -0.4599170000  0.8325840000  0.0607910000
O  0.1396190000  1.8674390000  0.1718740000
