17	
ANI-1E 51502 5.44719 1.42975 1.25284 2.4943 67.34         -0.3017          0.1193          0.4209 989.4108 0.148141     -363.722477 -363.715416 -363.714472 -363.754192 25.934	
H  1.0722160000  -2.2955990000  0.1101080000
C  1.1159210000  -1.2160930000  0.0462180000
C  0.0645230000  -0.3992930000  0.0187910000
C  -1.3826810000  -0.6859840000  0.0714490000
H  -1.6251700000  -1.7356960000  0.2193390000
N  -2.2739030000  0.2514840000  0.7559370000
H  -1.7342470000  1.0688490000  1.0343330000
C  -2.3145980000  0.1756640000  -0.6986390000
H  -1.8768910000  0.9884590000  -1.2736250000
H  -3.2201440000  -0.2582680000  -1.1154070000
O  0.3849190000  0.9306510000  -0.0783500000
C  1.8156660000  1.0282410000  0.0651330000
H  2.1759150000  1.7393510000  -0.6818500000
H  2.0226450000  1.4277200000  1.0648210000
C  2.3755350000  -0.3979020000  -0.1022500000
H  2.8449480000  -0.5465270000  -1.0839300000
H  3.1325000000  -0.6216800000  0.6572300000
