19	
ANI-1E 53137 2.71634 1.25196 1.06106 0.7394 70.31         -0.3317          0.1434          0.4751 1232.7967 0.166344     -364.893621 -364.883214 -364.88227 -364.929454 36.172	
H  0.2445670000  -2.2903210000  -0.6431460000
O  0.8854100000  -1.6114330000  -0.8906530000
C  0.6550350000  -0.4863300000  -0.0438550000
C  -0.7853240000  -0.1554860000  -0.0150960000
C  -1.9708740000  0.0630540000  0.0072370000
C  -3.4047570000  0.3558850000  0.0321910000
H  -3.9051800000  -0.1877390000  0.8401420000
H  -3.5763940000  1.4256380000  0.1889950000
H  -3.8802570000  0.0728700000  -0.9124830000
C  1.1552100000  -0.7780020000  1.3728010000
H  2.2203180000  -1.0339500000  1.3382840000
H  1.0039410000  0.0908660000  2.0202110000
H  0.6085020000  -1.6235250000  1.8036900000
C  1.4665830000  0.6439880000  -0.6963530000
H  2.4715120000  0.2339440000  -0.8873530000
H  1.0114630000  0.8539620000  -1.6686030000
N  1.4563310000  1.8560490000  0.1109180000
H  2.2013150000  1.8314400000  0.7996000000
H  1.6273800000  2.6672790000  -0.4720870000
