15	
ANI-1E 52951 3.89932 1.40456 1.03915 1.7974 67.09         -0.3357          0.0166          0.3524 1065.7362 0.120851     -399.716352 -399.708409 -399.707465 -399.748902 28.054	
H  3.4281490000  0.3999580000  -0.0036090000
C  2.3991590000  -0.0071670000  -0.0018130000
O  2.2433240000  -1.2267480000  0.0010860000
C  1.3408750000  0.9826850000  -0.0010260000
H  1.6332380000  2.0274950000  -0.0019170000
C  0.0124080000  0.6804140000  0.0006870000
N  -0.3800580000  -0.6439910000  0.0021000000
H  0.4028820000  -1.3021420000  0.0018000000
C  -1.6604640000  -1.1526070000  -0.0005420000
H  -1.6435890000  -2.2569370000  0.0013650000
O  -2.6892580000  -0.5162890000  -0.0020940000
C  -1.0361540000  1.7516730000  0.0012990000
H  -1.6867650000  1.6593800000  0.8746950000
H  -0.5561180000  2.7325230000  0.0032190000
H  -1.6848610000  1.6619690000  -0.8738160000
