19	
ANI-1E 53295 3.55711 1.24180 1.01544 3.9477 63.65         -0.3329          0.1529          0.4858 1201.7990 0.169451     -398.256369 -398.246866 -398.245922 -398.291302 33.831	
H  -3.2853400000  -0.8322120000  -0.5220530000
N  -2.5588940000  -0.1355950000  -0.5016070000
H  -2.8075090000  0.8386170000  -0.4320280000
C  -1.3770700000  -0.5495860000  0.0492260000
O  -1.0871840000  -1.7248590000  0.2208500000
N  -0.5017810000  0.4717540000  0.3977730000
N  -0.8189250000  1.7738730000  -0.0056540000
H  -0.6221700000  2.4093210000  0.7628100000
H  -0.2421410000  2.0499060000  -0.7994510000
C  0.8805760000  0.1307540000  0.6907020000
H  1.2786830000  0.9033670000  1.3634210000
H  0.8662630000  -0.8148190000  1.2374600000
C  1.7611150000  -0.0027370000  -0.5513600000
H  1.3439490000  -0.7979060000  -1.1803400000
H  1.7252010000  0.9261840000  -1.1391050000
C  3.2095830000  -0.3193670000  -0.1899620000
H  3.6457780000  0.4710220000  0.4328780000
H  3.2758400000  -1.2592690000  0.3697720000
H  3.8308960000  -0.4199470000  -1.0853850000
