16	
ANI-1E 53810 4.46286 1.15798 0.95699 3.8315 64.03         -0.3522          0.0297          0.3819 1192.2357 0.132388     -379.802186 -379.793559 -379.792615 -379.836287 30.568	
H  2.2994400000  1.5971300000  0.3844660000
N  2.6491950000  0.6384420000  0.3228790000
C  1.6659180000  -0.1219880000  0.0591010000
C  0.2510650000  0.4353670000  -0.1200950000
O  0.0977380000  1.6361030000  -0.1084210000
C  -0.8989740000  -0.5359550000  -0.3086110000
H  -0.7539350000  -1.0169510000  -1.2907730000
H  -0.8178500000  -1.3358780000  0.4375510000
C  -2.2428030000  0.1301820000  -0.2559690000
H  -2.3456840000  1.0402380000  -0.8431370000
C  -3.2662360000  -0.3281380000  0.4549570000
H  -3.1849000000  -1.2265380000  1.0644000000
H  -4.2270270000  0.1788020000  0.4576630000
N  1.8048220000  -1.4977810000  0.0098690000
H  2.7739690000  -1.7890870000  0.0145750000
H  1.2421520000  -1.9979800000  -0.6629120000
