17	
ANI-1E 53931 3.01909 1.25965 1.05405 2.2836 59.56         -0.3581          0.0846          0.4427 1146.7999 0.142513     -437.932582 -437.923427 -437.922482 -437.966408 32.982	
H  -3.7560890000  -0.5897130000  -0.1203090000
O  -2.9990270000  -0.4621610000  0.4658140000
N  -1.9910500000  -0.0848010000  -0.4044600000
C  -0.8940920000  0.1073940000  0.2104230000
H  -0.8060190000  -0.0189590000  1.2914110000
C  0.3024120000  0.5565190000  -0.5765730000
H  0.0834710000  0.4502360000  -1.6485230000
O  0.6222860000  1.9082400000  -0.2493660000
H  -0.1753690000  2.4401200000  -0.3636310000
C  1.5617290000  -0.2355310000  -0.2155330000
H  2.3729710000  0.1598140000  -0.8483690000
O  1.8668760000  -0.0313300000  1.1506180000
H  1.8583910000  0.9291370000  1.2779830000
C  1.4131000000  -1.7262940000  -0.4487930000
H  0.6122890000  -2.1374470000  0.1743710000
H  1.1828050000  -1.9354970000  -1.4988590000
H  2.3449300000  -2.2345970000  -0.1865270000
