18	
ANI-1E 53963 3.54319 1.13797 1.05298 2.6935 67.83         -0.3308          0.1142          0.4450 1212.5161 0.15568     -380.985970 -380.976576 -380.975632 -381.020382 33.714	
H  -3.0045190000  -1.5719410000  -0.0900990000
N  -2.2950390000  -1.1235630000  -0.6748540000
C  -1.5825720000  -0.3153220000  0.0107620000
N  -1.6668540000  -0.0210540000  1.3495840000
H  -1.1919070000  0.8227940000  1.6389460000
H  -2.5227280000  -0.2384680000  1.8367940000
C  -0.4123280000  0.3784830000  -0.6824270000
H  -0.6392080000  0.3522010000  -1.7566290000
O  -0.2612340000  1.7137590000  -0.2197500000
H  -0.9602650000  2.2406770000  -0.6258170000
C  0.8600940000  -0.3842580000  -0.4242860000
H  0.7971510000  -1.4502120000  -0.6432410000
C  1.9846360000  0.1558780000  0.0329820000
H  2.0020130000  1.2254240000  0.2366620000
C  3.2480730000  -0.6111470000  0.2894800000
H  3.5568000000  -0.5210280000  1.3380140000
H  3.1244090000  -1.6747050000  0.0609760000
H  4.0739690000  -0.2242960000  -0.3197750000
