17	
ANI-1E 56136 3.57086 1.78665 1.27944 1.5563 67.05         -0.3042          0.1119          0.4161 966.4405 0.146482     -363.740582 -363.732800 -363.731856 -363.772744 28.818	
H  0.0322610000  2.7650410000  -0.2486720000
C  -0.0741940000  1.6994240000  -0.0767330000
C  -1.2199160000  1.0975090000  0.2209700000
H  -2.1177680000  1.7055050000  0.2953220000
C  -1.3262370000  -0.3889020000  0.4293230000
H  -1.7323680000  -0.5793220000  1.4405160000
N  -2.1948800000  -0.9775070000  -0.6074090000
H  -2.2632990000  -1.9808830000  -0.4470210000
H  -3.1392650000  -0.6144860000  -0.4905760000
C  0.0538170000  -0.9827510000  0.3402570000
H  0.1659670000  -2.0501050000  0.5157270000
C  1.1465040000  -0.2837870000  0.0348790000
C  2.5340040000  -0.8248610000  -0.0943230000
H  3.2057570000  -0.3287550000  0.6144440000
H  2.5486180000  -1.9003790000  0.0964620000
H  2.9215870000  -0.6392380000  -1.1016730000
O  1.1323510000  1.0706730000  -0.1936130000
