17	
ANI-1E 14515 4.72645 1.02650 0.85940 0.6075 73.09         -0.2929          0.0677          0.3607 1324.9767 0.141997     -396.948691 -396.939132 -396.938187 -396.98393 31.849	
H  3.6107280000  -1.7436520000  0.1678230000
C  2.5857320000  -1.3858220000  0.1713380000
H  1.7918900000  -2.1075910000  0.3710380000
N  2.4209650000  -0.1393480000  -0.0428520000
N  1.1765820000  0.4043780000  -0.1065790000
C  0.0129240000  -0.3260400000  -0.1686930000
H  0.0873500000  -1.3657720000  -0.4840510000
N  -1.1147720000  0.2304370000  0.0623850000
O  -2.1422690000  -0.6752560000  -0.2002550000
C  -3.3689920000  -0.0754250000  0.1616980000
H  -3.4012760000  0.1469090000  1.2351290000
H  -3.5373600000  0.8490220000  -0.4029180000
H  -4.1402210000  -0.8080260000  -0.0870810000
C  1.1123520000  1.8446460000  0.0365540000
H  0.8229570000  2.1328390000  1.0541170000
H  2.1031240000  2.2396170000  -0.1899020000
H  0.3694370000  2.2462850000  -0.6581710000
