19	
ANI-1E 16801 2.84474 1.40089 1.09231 3.4953 63.37         -0.3349          0.0574          0.3923 1141.1484 0.168331     -402.048900 -402.039712 -402.038768 -402.082984 32.414	
H  2.0513440000  0.0891020000  1.0217550000
O  2.0313110000  -0.8732500000  0.8934810000
C  1.6942090000  -1.0533260000  -0.4652140000
H  2.2296960000  -0.3302360000  -1.0954870000
H  2.0375080000  -2.0522140000  -0.7546100000
C  0.1838100000  -0.9460190000  -0.7150320000
H  0.0020600000  -0.8369520000  -1.7943990000
H  -0.3087240000  -1.8734730000  -0.3993170000
C  -0.5037700000  0.2090740000  0.0438320000
H  -0.3819510000  0.0060000000  1.1160300000
C  0.1778870000  1.5459100000  -0.1914410000
H  -0.4467630000  2.3175850000  -0.6855550000
O  1.3157350000  1.7937740000  0.1485460000
N  -1.9264680000  0.3559740000  -0.2249700000
H  -2.0936800000  0.2707640000  -1.2239820000
C  -2.7746570000  -0.5860470000  0.4896610000
H  -2.5516510000  -1.6482530000  0.2955790000
H  -2.6745190000  -0.4129870000  1.5666230000
H  -3.8192890000  -0.4029010000  0.2211100000
